hello world!
TEST OK!!!
ALL OK!
New line.
Line4.
line5.
bla-bla!
THIS NEW TEXT!
