hello world!
TEST OK!!!
New line.
Line4.
line5.
bla-bla!
