hello world!
TEST OK!!!
New line.
Line4.
